[General]
network = testfattree
sim-time-limit = 110s
**.*.vector-recording = true

**.Host*.numApps = 1

**.Host3.app[0].typename = "HiUdpApp"
**.Host3.app[0].trafficMode = "LongFlow"
**.Host3.app[0].workLoad = 1
**.Host3.app[0].linkSpeed = 1Gbps
**.Host3.app[0].AppPriority=1
**.Host3.app[0].startTime = -1s#开始发包，默认为-1，即不开启/作为接收端
**.Host3.app[0].stopTime = 1s
**.Host3.app[0].packetName = default
**.Host3.app[0].connectAddresses = "Host4"
**.Host4.app[0].typename = "HiUdpApp"

**.Host*.app[0].typename = "TcpApp"
**.Host1.app[0].tOpen = 0s #开始三次握手，默认为-1，即不开启/作为接收端
**.Host1.app[0].tSend = 0s #开始发包
**.Host1.app[0].tClose = 10s
**.Host1.app[0].sendBytes = 10MiB
**.Host1.app[0].connectAddress = "Host2"

**.Host3.UdpCC.typename = "DCQCN"
**.Host3.UdpCC.linkspeed = 1Gbps
**.Host3.UdpCC.min_cnp_interval = 55us
**.Host3.UdpCC.AlphaTimer_th = 25us
**.Host3.UdpCC.RateTimer_th = 55us
**.Host3.UdpCC.ByteCounter_th = 10MiB
**.Host3.UdpCC.gamma = 1/256
**.Host3.UdpCC.Rai = 40Mbps
**.Host3.UdpCC.Rhai = 100Mbps

**.Host2.UdpCC.typename = "DCQCN"
**.Host2.UdpCC.linkspeed = 1Gbps
**.Host2.UdpCC.min_cnp_interval = 55us
**.Host2.UdpCC.AlphaTimer_th = 25us
**.Host2.UdpCC.RateTimer_th = 55us
**.Host2.UdpCC.ByteCounter_th = 10MiB
**.Host2.UdpCC.gamma = 1/256
**.Host2.UdpCC.Rai = 40Mbps
**.Host2.UdpCC.Rhai = 100Mbps


**.Host2.app[0].typename = "TcpApp"
**.Host2.app[0].startTime = -1s#开始发包，默认为-1，即不开启/作为接收端
**.Host2.app[0].stopTime = 1s


**.Host14.UdpCC.typename = "XPASS"
**.Host14.UdpCC.linkspeed = 1Gbps
**.Host14.UdpCC.initialrate = 1/16
**.Host14.UdpCC.wmax=0.03
**.Host14.UdpCC.wmin=0.01
**.Host14.UdpCC.targetratio=0.1


**.tcp.tcpAlgorithmClass = "DcTcp"
**.tcp.mss=1460
**.tcp.ecnWillingness=true
**.tcp.nagleEnabled = false 
**.tcp.limitedTransmitEnabled = false 
**.tcp.sackSupport = false  
**.tcp.timestampSupport = false 
**.tcp.delayedAcksEnabled = true 
**.tcp.recordStat=true
**.tcp.advertisedWindow=6250#1Gbps*50us/8=6250
**.tcp.dctcpGamma=0.0625


#for use ECMP and reverse routing
**.configurator.ecmp=true
**.*.ipv4.routingTable.flowlevel=true
**.Core*.ipv4.ip.useEcmp=true
**.Agre*.ipv4.ip.useEcmp=true
**.Edge*.ipv4.ip.useEcmp=true


**.Core*.eth[*].*.creditQueue.bitrate=10Gbps
**.Agre*.eth[*].*.creditQueue.bitrate=10Gbps
**.Edge*.eth[2..3].*.creditQueue.bitrate=10Gbps
**.Edge*.eth[0..1].*.creditQueue.bitrate=1Gbps

**.*.eth[*].usePfc         = true
**.*.eth[*].useEcn         = true
**.*.Hiqueue.*.XOFF         = 300000B
**.*.Hiqueue.*.XON        = 297000B
**.*.Hiqueue.*.K             = 150000B
**.*.Hiqueue.*.Kmax          = 200000B
**.*.Hiqueue.*.Kmin          = 5000B
**.*.Hiqueue.*.Pmax           = 0.01

**.*.mac.maxInterval = 0.00001s
**.*.mac.batchSize = 50



**.Host*.app[0].connectAddress = "Host13"
**.Host1.app[0].localAddress = "Host1"
**.Host2.app[0].localAddress = "Host2"
**.Host3.app[0].localAddress = "Host3"
**.Host4.app[0].localAddress = "Host4"
**.Host5.app[0].localAddress = "Host5"
**.Host6.app[0].localAddress = "Host6"
**.Host7.app[0].localAddress = "Host7"
**.Host8.app[0].localAddress = "Host8"
**.Host9.app[0].localAddress = "Host9"
**.Host10.app[0].localAddress = "Host10"
**.Host11.app[0].localAddress = "Host11"
**.Host12.app[0].localAddress = "Host12"
**.Host13.app[0].localAddress = "Host13"
**.Host14.app[0].localAddress = "Host14"
**.Host15.app[0].localAddress = "Host15"
**.Host16.app[0].localAddress = "Host16"

