[General]
network = testfattree
sim-time-limit = 110s
**.*.vector-recording = true

**.arp.typename = "GlobalArp"
**.arp.retryTimeout = 1s
**.arp.retryCount = 3
**.arp.cacheTimeout = 100s

#for use ECMP and reverse routing
**.configurator.ecmp=true
**.*.ipv4.routingTable.flowlevel=true
**.Core*.ipv4.ip.useEcmp=true
**.Agre*.ipv4.ip.useEcmp=true
**.Edge*.ipv4.ip.useEcmp=true

**.*.mac.maxInterval = 100us
**.*.mac.batchSize = 50

**.*.Hiqueue.*.sharedBuffer = 9MB
**.*.Hiqueue.*.alpha = 1
**.*.Hiqueue.*.useEcn         = true
**.*.Hiqueue.*.Kmax          = 200000B
**.*.Hiqueue.*.Kmin          = 5000B
**.*.Hiqueue.*.Pmax           = 0
**.*.Hiqueue.*.usePfc         = true
**.*.Hiqueue.*.XOFF         = 300000B
**.*.Hiqueue.*.XON        = 297000B
**.*.Hiqueue.*.headroom = 21520b#10Gbps*(100ns+2*57.6ns=72*8b/10Gbps)=2152b 2152b*10=21520b
**.Core*.eth[*].*.creditQueue.limrate=2Gbps
**.Agre*.eth[*].*.creditQueue.limrate=2Gbps
**.Edge*.eth[12].*.creditQueue.limrate=2Gbps
**.Edge*.eth[0..11].*.creditQueue.limrate=0.5Gbps

**.Host*.numApps = 1

**.Host3.app[0].typename = "HiUdpApp"
**.Host3.app[0].trafficMode = "WebSearch"
**.Host3.app[0].Enablepoisson = true
**.Host3.app[0].workLoad = 1
**.Host3.app[0].linkSpeed = 10Gbps
**.Host3.app[0].AppPriority=1
**.Host3.app[0].packetName = default
**.Host3.app[0].connectAddresses = "Host15" 
**.Host4.app[0].typename = "HiUdpApp"
**.Host4.app[0].trafficMode = "WebSearch"
**.Host4.app[0].Enablepoisson = true
**.Host4.app[0].workLoad = 1
**.Host4.app[0].linkSpeed = 10Gbps
**.Host4.app[0].AppPriority=1
**.Host4.app[0].packetName = default
**.Host4.app[0].connectAddresses = "Host15" 
**.Host15.app[0].typename = "HiUdpApp"

**.Host1.app[0].connectAddresses = "Host2"

**.Host*.app[0].typename = "TcpApp"
**.Host*.app[0].connectAddresses = "Host13"
**.Host1.app[0].localAddress = "Host1"
**.Host2.app[0].localAddress = "Host2"
**.Host3.app[0].localAddress = "Host3"
**.Host4.app[0].localAddress = "Host4"
**.Host5.app[0].localAddress = "Host5"
**.Host6.app[0].localAddress = "Host6"
**.Host7.app[0].localAddress = "Host7"
**.Host8.app[0].localAddress = "Host8"
**.Host9.app[0].localAddress = "Host9"
**.Host10.app[0].localAddress = "Host10"
**.Host11.app[0].localAddress = "Host11"
**.Host12.app[0].localAddress = "Host12"
**.Host13.app[0].localAddress = "Host13"
**.Host14.app[0].localAddress = "Host14"
**.Host15.app[0].localAddress = "Host15"
**.Host16.app[0].localAddress = "Host16"


**.Host3.app[0].startTime = 0s#开始发包，默认为-1，即不开启/作为接收端
**.Host3.app[0].stopTime = 1s
**.Host4.app[0].startTime = -1s#开始发包，默认为-1，即不开启/作为接收端
**.Host4.app[0].stopTime = 1s


**.Host1.app[0].tOpen = -1s #开始三次握手，默认为-1，即不开启/作为接收端
**.Host1.app[0].tSend = 0s #开始发包
**.Host1.app[0].tClose = 10s


**.Host3.UdpCC.typename = "CoRe"
**.Host15.UdpCC.typename = "CoRe"
**.Host3.UdpCC.linkspeed = 10Gbps
**.Host*.UdpCC.activate = true

**.Host*.UdpCC.baseRTT = 100us
**.Host3.UdpCC.expectedFlows = 1
**.Core*.eth[*].mac.HPCC = true
**.Agre*.eth[*].mac.HPCC = true
**.Edge*.eth[*].mac.HPCC = true#HPCC

**.Host*.UdpCC.PARA_K = ${k=1e-5}
**.Host*.UdpCC.PARA_P = ${p=8e-5}
**.Host*.UdpCC.m = ${m=0.25}
**.Core*.eth[*].mac.CoRe = true
**.Agre*.eth[*].mac.CoRe = true
**.Edge*.eth[*].mac.CoRe = true
**.Core*.eth[*].*.*.S_drop = 8kB 
**.Agre*.eth[*].*.*.S_drop = 8kB
**.Edge*.eth[*].*.*.S_drop = 8kB#CoRe

**.Host3.UdpCC.min_cnp_interval = 55us
**.Host3.UdpCC.AlphaTimer_th = 25us
**.Host3.UdpCC.RateTimer_th = 55us
**.Host3.UdpCC.ByteCounter_th = 10MiB
**.Host3.UdpCC.gamma = 1/256
**.Host3.UdpCC.Rai = 40Mbps
**.Host3.UdpCC.Rhai = 100Mbps#DCQCN

**.Host2.UdpCC.typename = "DCQCN"
**.Host2.UdpCC.linkspeed = 1Gbps
**.Host2.UdpCC.min_cnp_interval = 55us
**.Host2.UdpCC.AlphaTimer_th = 25us
**.Host2.UdpCC.RateTimer_th = 55us
**.Host2.UdpCC.ByteCounter_th = 10MiB
**.Host2.UdpCC.gamma = 1/256
**.Host2.UdpCC.Rai = 40Mbps
**.Host2.UdpCC.Rhai = 100Mbps


**.Host2.app[0].typename = "TcpApp"
**.Host2.app[0].startTime = -1s#开始发包，默认为-1，即不开启/作为接收端
**.Host2.app[0].stopTime = 1s


**.Host14.UdpCC.typename = "XPASS"
**.Host14.UdpCC.linkspeed = 1Gbps
**.Host14.UdpCC.initialrate = 1/16
**.Host14.UdpCC.wmax=0.03
**.Host14.UdpCC.wmin=0.01
**.Host14.UdpCC.targetratio=0.1


**.tcp.tcpAlgorithmClass = "DcTcp"
**.tcp.mss=1460
**.tcp.ecnWillingness=true
**.tcp.nagleEnabled = false 
**.tcp.limitedTransmitEnabled = false 
**.tcp.sackSupport = false  
**.tcp.timestampSupport = false 
**.tcp.delayedAcksEnabled = true 
**.tcp.recordStat=true
**.tcp.advertisedWindow=6250#1Gbps*50us/8=6250
**.tcp.dctcpGamma=0.0625












